LAMMPS (28 Mar 2023 - Development)
# Using scaled soft core potentials for free energy calculations

# Define general settings

units real
dimension 3
boundary p p p
atom_style      full

# Define bond, angle, and dihedral style

bond_style    hybrid harmonic table spline 1000
angle_style    harmonic
dihedral_style    hybrid nharmonic opls

# Define pair style and further settings

pair_style hybrid/overlay mie/cut 14 coul/long 14
pair_modify mix arithmetic tail yes

# Define the neighbor list settings

neighbor 2.0 bin
neigh_modify every 1 delay 0 check yes

# Define special bonds to scale 1-2, 1-3, or 1-4 vdW / Coulomb pair interactions

special_bonds lj 0 0 0  coul 0 0 0

# Define if new simulation (0) or read restart (1)

variable restart equal 0

read_data       lammps.data
Reading data file ...
  orthogonal box = (-17.970409 -17.970409 -17.970409) to (17.970409 17.970409 17.970409)
  reading atoms ...
  3000 atoms
  scanning bonds ...
  scanning angles ...
  scanning dihedrals ...
  reading bonds ...
  6500 bonds
  reading angles ...
  2000 angles
  reading dihedrals ...
  1500 dihedrals
Finding 1-2 1-3 1-4 neighbors ...
     5 = max # of 1-2 neighbors
    16 = max # of 1-3 neighbors
    68 = max # of 1-4 neighbors
     5 = max # of special neighbors

# Van der Waals interactions

pair_coeff  1 1  mie/cut 0.0 1.0 12.0 6.0 # H  H
pair_coeff  1 2  mie/cut 0.0 2.0175 12.0 6.0 # H  OH_alcohol
pair_coeff  1 3  mie/cut 0.0 2.421 13.0 6.0 # H  CH2_alcohol
pair_coeff  2 2  mie/cut 0.1673 3.035 12.0 6.0 # OH_alcohol  OH_alcohol
pair_coeff  2 3  mie/cut 0.1673 3.4385 13.0 6.0 # OH_alcohol  CH2_alcohol
pair_coeff  3 3  mie/cut 0.1673 3.842 14.0 6.0 # CH2_alcohol  CH2_alcohol

# Coulombic interactions

pair_coeff  * * coul/long

# Long range coulombic interaction solver

kspace_style pppm 1e-5

# ============= INITIAL SYSTEM SETUP AND EQUILIBRATION =============

# ------------- general ---------------

variable  timestep            equal       1

timestep  1

# ------------- set ensemble settings ---------------

# seed value should be passed as variable in job file
variable  seed                index       12345
variable  temperature         equal       298.15
variable  pressure            equal       0.9869232667160128

# ------------- generate velocities ---------------

velocity        all create 298.15 9228 rot yes dist gaussian

# ------------- set integration settings ---------------

fix             int_npt all npt temp 298.15 298.15 100  iso 0.986923266716013 0.986923266716013 $(1000.0*v_timestep)
fix             int_npt all npt temp 298.15 298.15 100  iso 0.986923266716013 0.986923266716013 1000

# ------------- equilibrate system ---------------

thermo          10000
run             2000000
PPPM initialization ...
  G vector (1/distance) = 0.20619265
  grid = 18 18 18
  stencil order = 5
  estimated absolute RMS force accuracy = 0.0033040789
  estimated relative force accuracy = 9.9501356e-06
  3d grid and FFT values/proc = 2304 270
Generated 0 of 3 mixed pair_coeff terms from arithmetic mixing rule
Step          Temp          E_pair         E_mol          TotEng         Press          Volume
0   298.15        -2489.8272      1795.9265      1971.3961      15514.024      46426.279
Averages over the last 101 of 201 rows, steps 1000000 to 2000000:
Temp E_pair E_mol TotEng Press Volume
298.178 -10001.4 3525.98 -3809.84 77.96 45244.1
Loop time of 18385.9 on 28 procs for 2000000 steps with 3000 atoms

write_restart   equil.restart
System init for write_restart ...
PPPM initialization ...
  G vector (1/distance) = 0.2066277
  grid = 18 18 18
  stencil order = 5
  estimated absolute RMS force accuracy = 0.0032271803
  estimated relative force accuracy = 9.7185577e-06
  3d grid and FFT values/proc = 2304 270
Generated 0 of 3 mixed pair_coeff terms from arithmetic mixing rule
reset_timestep  0

# ============= VARIABLES ===============

# ------------- general ---------------

variable  run_time            equal       4000000

# ------------- output ---------------

variable  sample_frequency    equal       20
variable  sample_number       equal       50
variable  to_file_every       equal       $(v_sample_frequency*v_sample_number)
variable  to_file_every       equal       1000
variable  to_screen_every     equal       $(v_to_file_every*10)
variable  to_screen_every     equal       10000

# ------------- values ---------------

variable step equal step

# ============= SAMPLING CONDITIONS =============

thermo          10000
thermo_style    custom step temp press pe ke etotal enthalpy vol density

# Pressure, mass density, and potential energy sampling

variable press equal press
variable mass_dens equal density
variable pot_eng equal pe

fix sampling all ave/time 20 50 1000 v_press v_mass_dens v_pot_eng file values.sampling

# ============= RUN CONDITIONS =============

run             4000000
PPPM initialization ...
  G vector (1/distance) = 0.2066277
  grid = 18 18 18
  stencil order = 5
  estimated absolute RMS force accuracy = 0.0032271803
  estimated relative force accuracy = 9.7185577e-06
  3d grid and FFT values/proc = 2304 270
Generated 0 of 3 mixed pair_coeff terms from arithmetic mixing rule
Step          Temp          Press          PotEng         KinEng         TotEng        Enthalpy        Volume        Density
0   295.67037     -707.14922     -6454.5317      2643.1303     -3811.4014     -4279.0907      45349.285      1.1363611
Averages over the last 114 of 227 rows, steps 1130000 to 2260000:
Temp Press PotEng KinEng TotEng Enthalpy Volume Density
298.836 -71.6473 -6493.75 2671.42 -3822.32 -3870.45 45232.1 1.13935
